testData/tamu2000/pfcases_100_zone3/Equ_tx2000_hr_5499_mod_v23_zone3_pslf.raw
0  100.000 
THIS IS A SYNTHETIC POWER SYSTEM MODEL THAT DOES NOT REPRESE
DATA RESEARCH PROJECT AND CONTAINS NO CEII.
1004,  2,  36.328,  -20.029,  0.000,  0.000,  1,  1.02719,  -23.7978,  'O DONNEL',  230.00,  9
1009,  2,  20.993,  -3.197,  0.000,  0.000,  1,  1.01156,  -21.7354,  'IRAAN 2 ',  13.800,  9
1021,  2,  32.102,  -13.243,  0.000,  0.000,  1,  1.00834,  -20.7837,  'BIG SPRI',  13.800,  9
1023,  2,  29.715,  -4.948,  0.000,  0.000,  1,  1.01000,  -17.3057,  'O DONNEL',  13.800,  9
1026,  2,  27.457,  -9.538,  0.000,  0.000,  1,  1.00516,  -19.2987,  'BIG SPRI',  13.800,  9
1033,  2,  139.455,  -40.759,  0.000,  0.000,  1,  1.00502,  -27.4404,  'MCCAMEY ',  230.00,  9
1035,  2,  37.084,  -12.649,  0.000,  0.000,  1,  1.00528,  -19.4549,  'BIG SPRI',  13.800,  9
1039,  2,  20.685,  -8.460,  0.000,  0.000,  1,  1.00220,  -19.8907,  'FORT STO',  22.000,  9
1042,  2,  39.924,  -6.626,  0.000,  0.000,  1,  1.00000,  -16.3772,  'FORSAN 1',  13.800,  9
1048,  2,  53.864,  -8.520,  0.000,  0.000,  1,  1.00000,  -22.1060,  'MONAHANS',  18.000,  9
1049,  2,  33.809,  -2.924,  0.000,  0.000,  1,  1.00000,  -19.2379,  'MONAHANS',  18.000,  9
1053,  2,  33.839,  -9.358,  0.000,  0.000,  1,  1.00754,  -26.2745,  'MONAHANS',  230.00,  9
1057,  2,  55.579,  -14.743,  0.000,  0.000,  1,  1.00572,  -21.5718,  'LENORAH ',  18.000,  9
1066,  2,  41.323,  -7.749,  0.000,  0.000,  1,  1.00000,  -16.6958,  'BIG SPRI',  13.800,  9
1070,  2,  41.232,  -1.201,  0.000,  0.000,  1,  1.04000,  -21.3528,  'IRAAN 1 ',  13.800,  9
1072,  3,  25.289,  -5.614,  0.000,  0.000,  1,  1.01000,  -35.3406,  'ODESSA 1',  18.000,  9
1073,  2,  21.978,  -3.102,  0.000,  0.000,  1,  1.01000,  -28.2330,  'ODESSA 1',  18.000,  9
1074,  2,  22.998,  -2.074,  0.000,  0.000,  1,  1.01000,  -28.4558,  'ODESSA 1',  18.000,  9
1075,  2,  27.968,  -2.611,  0.000,  0.000,  1,  1.01000,  -29.2609,  'ODESSA 1',  18.000,  9
1076,  2,  58.052,  -6.638,  0.000,  0.000,  1,  1.01000,  -30.8832,  'ODESSA 1',  18.000,  9
1077,  2,  23.645,  -2.343,  0.000,  0.000,  1,  1.01000,  -28.5817,  'ODESSA 1',  18.000,  9
1081,  2,  54.066,  -22.663,  0.000,  0.000,  1,  1.01000,  -27.3738,  'ODESSA 1',  230.00,  9
1082,  2,  58.122,  -28.564,  0.000,  0.000,  1,  1.02046,  -22.0341,  'FORT STO',  115.00,  9
1084,  2,  91.042,  -33.892,  0.000,  0.000,  1,  1.03707,  -26.3089,  'BIG SPRI',  115.00,  9
1088,  2,  38.716,  -8.110,  0.000,  0.000,  1,  1.00000,  -23.5209,  'MCCAMEY ',  115.00,  9
1090,  2,  109.219,  -6.916,  0.000,  0.000,  1,  1.02000,  -31.1633,  'GOLDSMIT',  115.00,  9
2004,  2,  78.746,  -25.944,  0.000,  0.000,  2,  1.02332,  -41.3474,  'SAVOY 2 ',  13.800,  11
2005,  2,  68.677,  -22.679,  0.000,  0.000,  2,  1.02233,  -41.1851,  'SAVOY 3 ',  13.800,  11
2006,  2,  52.948,  -16.287,  0.000,  0.000,  2,  1.02000,  -40.5643,  'SAVOY 4 ',  13.800,  11
2019,  2,  -0.022,  31.870,  0.000,  0.000,  2,  1.04000,  -30.0152,  'PANHANDL',  20.000,  10
2024,  2,  60.750,  -21.513,  0.000,  0.000,  2,  1.02845,  -41.6894,  'PARIS 2 ',  13.800,  11
2057,  3,  114.794,  -91.573,  0.000,  0.000,  2,  0.99000,  -36.1566,  'WICHITA ',  18.000,  11
2059,  2,  -0.007,  -0.423,  0.000,  0.000,  2,  1.02786,  -27.7530,  'WHITE DE',  13.800,  10
2062,  2,  40.133,  -21.815,  0.000,  0.000,  2,  1.02000,  -33.9363,  'VERNON 1',  18.000,  10
2071,  2,  25.283,  -10.949,  0.000,  0.000,  2,  1.00584,  -33.6934,  'ARCHER 2',  18.000,  11
2078,  2,  61.628,  -16.176,  0.000,  0.000,  2,  1.02000,  -41.6814,  'MUENSTER',  13.800,  11
2100,  2,  4.629,  8.129,  0.000,  0.000,  2,  1.02120,  -27.4685,  'RALLS 1 ',  18.000,  10
2103,  2,  107.825,  -27.663,  0.000,  0.000,  2,  1.02682,  -42.1992,  'SHERMAN ',  20.000,  11
2104,  2,  81.501,  -21.294,  0.000,  0.000,  2,  1.02569,  -42.0291,  'SHERMAN ',  20.000,  11
2105,  2,  51.444,  -14.240,  0.000,  0.000,  2,  1.02306,  -41.6080,  'SHERMAN ',  20.000,  11
2115,  2,  42.406,  -15.126,  0.000,  0.000,  2,  1.02542,  -41.1469,  'PARIS 1 ',  13.800,  11
2116,  2,  66.361,  -25.903,  0.000,  0.000,  2,  1.02900,  -41.7062,  'PARIS 1 ',  13.800,  11
2117,  2,  37.592,  -12.970,  0.000,  0.000,  2,  1.02394,  -40.9667,  'PARIS 1 ',  13.800,  11
2118,  2,  36.620,  -12.646,  0.000,  0.000,  2,  1.02302,  -40.8196,  'PARIS 1 ',  13.800,  11
2119,  2,  57.530,  -21.556,  0.000,  0.000,  2,  1.02814,  -41.5748,  'PARIS 1 ',  13.800,  11
2120,  2,  36.714,  -12.777,  0.000,  0.000,  2,  1.02347,  -40.8772,  'PARIS 1 ',  13.800,  11
2123,  2,  12.942,  -3.089,  0.000,  0.000,  2,  1.03709,  -29.4236,  'PANHANDL',  161.00,  10
2127,  2,  130.949,  -172.062,  0.000,  0.000,  2,  1.05177,  -32.1145,  'MIAMI 0 ',  500.00,  10
3017,  2,  33.741,  1.954,  0.000,  0.000,  3,  1.01000,  -23.0061,  'BLACKWEL',  18.000,  27
3020,  2,  113.534,  -6.163,  0.000,  0.000,  3,  1.03000,  -31.6263,  'CHRISTOV',  13.800,  27
3028,  2,  45.768,  -1.399,  0.000,  0.000,  3,  1.04000,  -32.6424,  'ABILENE ',  18.000,  27
3034,  2,  24.971,  -2.476,  0.000,  0.000,  3,  1.03000,  -17.0079,  'SNYDER 1',  22.000,  27
3039,  2,  26.281,  -6.213,  0.000,  0.000,  3,  1.04000,  -26.0519,  'ROSCOE 2',  13.800,  27
3045,  2,  10.983,  -0.958,  0.000,  0.000,  3,  1.04000,  -25.2547,  'SILVER 4',  13.800,  27
3048,  2,  517.961,  -658.270,  0.000,  0.000,  3,  1.04681,  -36.7914,  'ROSCOE 5',  500.00,  27
3055,  2,  39.639,  -1.440,  0.000,  0.000,  3,  1.04000,  -27.5504,  'WINGATE ',  13.800,  27
3056,  2,  28.433,  0.545,  0.000,  0.000,  3,  1.04000,  -26.1018,  'WINGATE ',  13.800,  27
3057,  2,  28.963,  0.243,  0.000,  0.000,  3,  1.04000,  -26.1923,  'WINGATE ',  13.800,  27
3060,  2,  15.902,  0.222,  0.000,  0.000,  3,  1.04000,  -23.6045,  'STERLING',  18.000,  27
3061,  2,  17.754,  0.326,  0.000,  0.000,  3,  1.04000,  -24.8233,  'STERLING',  18.000,  27
3062,  2,  23.972,  -2.616,  0.000,  0.000,  3,  1.04000,  -26.3292,  'STERLING',  18.000,  27
3063,  2,  19.978,  0.244,  0.000,  0.000,  3,  1.04000,  -25.6801,  'STERLING',  18.000,  27
3065,  2,  6.895,  -5.919,  0.000,  0.000,  3,  1.01380,  -21.5262,  'ROSCOE 4',  18.000,  27
3068,  2,  25.422,  -0.219,  0.000,  0.000,  3,  1.04000,  -22.7725,  'TRENT 1 ',  20.000,  27
3071,  2,  19.996,  -3.706,  0.000,  0.000,  3,  1.00809,  -22.6196,  'NOLAN 1 ',  24.000,  27
3074,  2,  51.945,  -14.821,  0.000,  0.000,  3,  1.01647,  -60.8731,  'BRACKETT',  13.800,  28
3081,  2,  17.402,  -3.295,  0.000,  0.000,  3,  1.04000,  -24.3101,  'HERMLEIG',  20.000,  27
3084,  2,  18.274,  -9.084,  0.000,  0.000,  3,  1.00000,  -23.9400,  'MERKEL 1',  13.800,  27
3086,  2,  12.444,  -3.191,  0.000,  0.000,  3,  1.00650,  -20.0173,  'LORAINE ',  13.200,  27
3087,  2,  13.295,  -3.102,  0.000,  0.000,  3,  1.00721,  -19.2465,  'LORAINE ',  13.200,  27
3092,  2,  30.824,  4.719,  0.000,  0.000,  3,  1.04000,  -28.6802,  'ABILENE ',  13.800,  27
3095,  2,  18.880,  3.822,  0.000,  0.000,  3,  1.04000,  -22.6345,  'MERKEL 2',  18.000,  27
3098,  2,  8.334,  -1.816,  0.000,  0.000,  3,  1.04000,  -20.3574,  'FLUVANNA',  13.800,  27
3106,  3,  2.144,  -6.149,  0.000,  0.000,  3,  1.00000,  -52.2181,  'BUCHANAN',  13.200,  28
3110,  2,  8.971,  -2.121,  0.000,  0.000,  3,  1.04000,  -20.9570,  'FLUVANNA',  13.800,  27
3112,  2,  10.591,  -4.685,  0.000,  0.000,  3,  1.01133,  -21.6630,  'STERLING',  18.000,  27
3113,  2,  10.591,  -4.685,  0.000,  0.000,  3,  1.01133,  -21.6630,  'STERLING',  18.000,  27
3118,  2,  25.817,  -8.199,  0.000,  0.000,  3,  1.00333,  -18.9938,  'SYNDER 2',  13.800,  27
3122,  2,  16.300,  -1.958,  0.000,  0.000,  3,  1.00000,  -17.1845,  'ROSCOE 1',  18.000,  27
3127,  2,  11.149,  -3.583,  0.000,  0.000,  3,  1.02082,  -22.4337,  'SWEETWAT',  115.00,  27
3129,  2,  22.020,  -33.292,  0.000,  0.000,  3,  1.02636,  -22.7079,  'ROSCOE 3',  115.00,  27
3131,  2,  109.947,  -20.333,  0.000,  0.000,  3,  1.02049,  -25.6861,  'TUSOCOLA',  115.00,  27
3137,  2,  90.289,  -17.954,  0.000,  0.000,  3,  1.03000,  -26.4711,  'SWEETWAT',  115.00,  27
3141,  2,  41.634,  -14.227,  0.000,  0.000,  3,  1.02273,  -23.3638,  'SWEETWAT',  115.00,  27
4010,  2,  38.431,  -5.520,  0.000,  0.000,  4,  1.03000,  -64.3321,  'SARITA 3',  20.000,  21
4026,  2,  135.262,  -9.128,  0.000,  0.000,  4,  1.03000,  -53.4067,  'CHRISTIN',  13.800,  20
4030,  3,  140.800,  -27.697,  0.000,  0.000,  4,  1.01000,  -50.3258,  'FANNIN 2',  13.800,  21
4050,  2,  18.245,  -7.488,  0.000,  0.000,  4,  1.01046,  -73.5657,  'SEBASTIA',  13.800,  19
4058,  2,  21.229,  1.011,  0.000,  0.000,  4,  1.03000,  -59.1590,  'GREGORY ',  13.800,  21
4059,  2,  24.789,  0.723,  0.000,  0.000,  4,  1.03000,  -59.3679,  'GREGORY ',  13.800,  21
4060,  2,  17.712,  0.645,  0.000,  0.000,  4,  1.03000,  -58.5557,  'GREGORY ',  13.800,  21
4061,  2,  21.862,  1.032,  0.000,  0.000,  4,  1.03000,  -58.9158,  'GREGORY ',  13.800,  21
4062,  2,  20.819,  0.460,  0.000,  0.000,  4,  1.03000,  -58.5135,  'GREGORY ',  13.800,  21
4063,  2,  21.524,  1.293,  0.000,  0.000,  4,  1.03000,  -58.8891,  'GREGORY ',  13.800,  21
4082,  2,  18.651,  -0.479,  0.000,  0.000,  4,  1.04000,  -63.1778,  'CORPUS C',  13.800,  21
4083,  2,  19.898,  -0.539,  0.000,  0.000,  4,  1.04000,  -63.3324,  'CORPUS C',  13.800,  21
4084,  2,  27.273,  -3.850,  0.000,  0.000,  4,  1.04000,  -64.1529,  'CORPUS C',  13.800,  21
4085,  2,  35.195,  -5.334,  0.000,  0.000,  4,  1.04000,  -63.9181,  'CORPUS C',  13.800,  21
4105,  2,  80.183,  1.910,  0.000,  0.000,  4,  1.01000,  -61.1049,  'TAFT 2 1',  18.000,  21
4115,  2,  86.401,  3.381,  0.000,  0.000,  4,  1.04000,  -64.9796,  'LAREDO 1',  13.800,  20
4116,  2,  82.279,  2.470,  0.000,  0.000,  4,  1.04000,  -64.9248,  'LAREDO 1',  13.800,  20
4142,  2,  84.206,  -8.104,  0.000,  0.000,  4,  1.04000,  -65.2826,  'SARITA 1',  13.800,  21
4153,  2,  210.661,  -24.759,  0.000,  0.000,  4,  1.04000,  -66.7710,  'ARMSTRON',  18.000,  21
4160,  2,  71.195,  5.550,  0.000,  0.000,  4,  1.03000,  -61.2358,  'CORPUS C',  13.800,  21
4161,  2,  37.138,  2.622,  0.000,  0.000,  4,  1.03000,  -60.1091,  'CORPUS C',  13.800,  21
4162,  2,  37.518,  1.865,  0.000,  0.000,  4,  1.03000,  -60.1293,  'CORPUS C',  13.800,  21
4166,  2,  31.175,  -4.772,  0.000,  0.000,  4,  1.01516,  -63.5581,  'SARITA 2',  13.800,  21
4177,  2,  62.008,  -0.203,  0.000,  0.000,  4,  1.04000,  -62.5144,  'BRUNI 1 ',  13.800,  20
4181,  2,  142.871,  -20.210,  0.000,  0.000,  4,  1.03169,  -60.2463,  'TAFT 1 0',  230.00,  21
4183,  2,  252.896,  -33.188,  0.000,  0.000,  4,  1.03000,  -69.2404,  'SAN PERL',  230.00,  19
4192,  2,  615.796,  2.500,  0.000,  0.000,  4,  1.02000,  -71.2972,  'BROWNSVI',  230.00,  19
4194,  2,  570.733,  -83.848,  0.000,  0.000,  4,  1.02000,  -75.9402,  'SEBASTIA',  115.00,  19
4195,  2,  394.560,  -123.727,  0.000,  0.000,  4,  1.03745,  -61.8256,  'OILTON 0',  500.00,  20
5020,  2,  48.421,  -21.978,  0.000,  0.000,  5,  1.02964,  -38.1744,  'JACKSBOR',  13.800,  12
5037,  2,  160.743,  -16.462,  0.000,  0.000,  5,  1.02603,  -43.5614,  'DALLAS 1',  13.200,  16
5038,  2,  155.909,  -15.660,  0.000,  0.000,  5,  1.02587,  -43.5421,  'DALLAS 1',  13.200,  16
5039,  2,  394.547,  -41.881,  0.000,  0.000,  5,  1.02823,  -43.8965,  'DALLAS 1',  13.200,  16
5040,  2,  115.194,  -12.488,  0.000,  0.000,  5,  1.02469,  -43.3431,  'DALLAS 1',  13.200,  16
5041,  2,  173.599,  -18.633,  0.000,  0.000,  5,  1.02634,  -43.5976,  'DALLAS 1',  13.200,  16
5042,  2,  144.272,  -14.532,  0.000,  0.000,  5,  1.02556,  -43.4967,  'DALLAS 1',  13.200,  16
5057,  2,  81.350,  -39.865,  0.000,  0.000,  5,  1.02915,  -38.8628,  'GRAHAM 2',  13.800,  12
5058,  2,  58.910,  -27.886,  0.000,  0.000,  5,  1.02706,  -38.5495,  'GRAHAM 3',  13.800,  12
5067,  2,  252.019,  -30.032,  0.000,  0.000,  5,  1.03000,  -42.8721,  'ARLINGTO',  13.800,  17
5068,  2,  238.357,  -29.207,  0.000,  0.000,  5,  1.03000,  -42.8329,  'ARLINGTO',  13.800,  17
5069,  2,  224.231,  -27.286,  0.000,  0.000,  5,  1.03000,  -42.7815,  'ARLINGTO',  13.800,  17
5166,  2,  110.776,  -22.203,  0.000,  0.000,  5,  1.04000,  -43.0611,  'DENTON 1',  13.800,  17
5198,  2,  99.256,  -40.140,  0.000,  0.000,  5,  1.03109,  -39.8612,  'BRYSON 1',  18.000,  12
5206,  2,  72.864,  -20.428,  0.000,  0.000,  5,  1.02770,  -40.6647,  'POOLVILL',  13.800,  12
5207,  2,  128.024,  -37.843,  0.000,  0.000,  5,  1.03012,  -41.0375,  'POOLVILL',  13.800,  12
5208,  2,  102.660,  -29.999,  0.000,  0.000,  5,  1.02938,  -40.9262,  'POOLVILL',  13.800,  12
5238,  2,  96.903,  -91.618,  0.000,  0.000,  5,  1.03131,  -37.4487,  'OLNEY 1 ',  18.000,  12
5243,  2,  117.842,  -40.469,  0.000,  0.000,  5,  1.03597,  -44.8776,  'GOLDTHWA',  13.800,  18
5262,  2,  255.553,  -33.894,  0.000,  0.000,  5,  1.02193,  -35.1635,  'GLEN ROS',  13.800,  18
5263,  2,  338.330,  -51.688,  0.000,  0.000,  5,  1.02483,  -36.7545,  'GLEN ROS',  13.800,  18
5281,  2,  114.141,  -20.532,  0.000,  0.000,  5,  1.02534,  -46.1537,  'TEMPLE 1',  13.800,  13
5282,  2,  135.514,  -24.540,  0.000,  0.000,  5,  1.02626,  -46.2871,  'TEMPLE 1',  13.800,  13
5283,  2,  167.794,  -33.274,  0.000,  0.000,  5,  1.02749,  -46.4578,  'TEMPLE 1',  13.800,  13
5298,  2,  218.000,  -31.614,  0.000,  0.000,  5,  1.04000,  -43.7536,  'MCKINNEY',  13.800,  16
5299,  2,  91.567,  -10.497,  0.000,  0.000,  5,  1.04000,  -43.5432,  'MCKINNEY',  13.800,  16
5300,  2,  111.826,  -13.422,  0.000,  0.000,  5,  1.04000,  -43.6128,  'MCKINNEY',  13.800,  16
5302,  2,  130.389,  -13.751,  0.000,  0.000,  5,  1.04000,  -42.6478,  'MCKINNEY',  13.800,  16
5303,  2,  180.921,  -22.656,  0.000,  0.000,  5,  1.04000,  -42.9786,  'MCKINNEY',  13.800,  16
5319,  2,  137.024,  -19.986,  0.000,  0.000,  5,  1.02377,  -40.1297,  'GRANBURY',  13.200,  18
5320,  2,  125.661,  -19.336,  0.000,  0.000,  5,  1.02335,  -40.0405,  'GRANBURY',  13.200,  18
5321,  2,  138.695,  -20.231,  0.000,  0.000,  5,  1.02403,  -40.1647,  'GRANBURY',  13.200,  18
5324,  2,  129.149,  -8.712,  0.000,  0.000,  5,  1.04000,  -43.2410,  'DALLAS 2',  13.800,  17
5325,  2,  129.181,  -7.768,  0.000,  0.000,  5,  1.04000,  -43.2383,  'DALLAS 2',  13.800,  17
5326,  2,  410.223,  -46.044,  0.000,  0.000,  5,  1.04000,  -43.8583,  'DALLAS 2',  13.800,  17
5360,  3,  136.582,  -35.927,  0.000,  0.000,  5,  1.01000,  -42.8200,  'RIESEL 1',  13.800,  13
5364,  2,  133.332,  -31.603,  0.000,  0.000,  5,  1.02937,  -41.4615,  'BRIDGEPO',  13.800,  12
5365,  2,  61.414,  -13.960,  0.000,  0.000,  5,  1.02702,  -41.1045,  'BRIDGEPO',  13.800,  12
5366,  2,  58.537,  -13.245,  0.000,  0.000,  5,  1.02645,  -41.0087,  'BRIDGEPO',  13.800,  12
5367,  2,  59.225,  -13.414,  0.000,  0.000,  5,  1.02656,  -41.0325,  'BRIDGEPO',  13.800,  12
5368,  2,  88.728,  -20.766,  0.000,  0.000,  5,  1.02824,  -41.2870,  'BRIDGEPO',  13.800,  12
5369,  2,  55.882,  -12.691,  0.000,  0.000,  5,  1.02618,  -40.9672,  'BRIDGEPO',  13.800,  12
5382,  2,  131.367,  -13.692,  0.000,  0.000,  5,  1.04000,  -43.7734,  'ENNIS 2 ',  13.800,  14
5383,  2,  112.937,  -10.733,  0.000,  0.000,  5,  1.04000,  -43.7064,  'ENNIS 3 ',  13.800,  14
5399,  2,  76.434,  -46.383,  0.000,  0.000,  5,  1.04000,  -35.3872,  'ALBANY 1',  13.800,  15
5415,  2,  55.592,  -16.980,  0.000,  0.000,  5,  1.03256,  -39.5961,  'PALO PIN',  13.800,  12
5416,  2,  55.050,  -16.646,  0.000,  0.000,  5,  1.03248,  -39.5896,  'PALO PIN',  13.800,  12
5417,  2,  60.390,  -18.750,  0.000,  0.000,  5,  1.03297,  -39.6654,  'PALO PIN',  13.800,  12
5418,  2,  62.002,  -20.076,  0.000,  0.000,  5,  1.03330,  -39.6953,  'PALO PIN',  13.800,  12
5419,  2,  99.675,  -34.701,  0.000,  0.000,  5,  1.03468,  -39.9145,  'PALO PIN',  13.800,  12
5444,  2,  886.213,  -205.495,  0.000,  0.000,  5,  1.02699,  -42.3798,  'MIDLOTHI',  500.00,  17
6006,  2,  48.146,  -10.320,  0.000,  0.000,  6,  1.04000,  -49.0956,  'BASTROP ',  13.800,  25
6007,  2,  75.868,  -17.089,  0.000,  0.000,  6,  1.04000,  -48.9730,  'BASTROP ',  13.800,  25
6008,  2,  39.576,  -7.021,  0.000,  0.000,  6,  1.04000,  -49.0599,  'BASTROP ',  13.800,  25
6009,  2,  22.781,  -2.990,  0.000,  0.000,  6,  1.04000,  -48.7529,  'BASTROP ',  13.800,  25
6010,  2,  34.272,  -6.255,  0.000,  0.000,  6,  1.04000,  -48.9851,  'BASTROP ',  13.800,  25
6062,  1,  142.519,  -34.581,  0.000,  0.000,  6,  1.02824,  -57.2234,  'BRENHAM ',  500.00,  25
6069,  2,  95.406,  -16.802,  0.000,  0.000,  6,  1.03036,  -51.5081,  'MARION 1',  18.000,  22
6070,  2,  41.391,  -7.361,  0.000,  0.000,  6,  1.03000,  -51.0014,  'MARION 1',  18.000,  22
6071,  2,  121.970,  -20.403,  0.000,  0.000,  6,  1.03081,  -51.5829,  'MARION 1',  18.000,  22
6072,  2,  50.155,  -8.391,  0.000,  0.000,  6,  1.03000,  -51.1560,  'MARION 1',  18.000,  22
6073,  2,  74.745,  -12.860,  0.000,  0.000,  6,  1.03000,  -51.3905,  'MARION 1',  18.000,  22
6074,  2,  75.290,  -13.457,  0.000,  0.000,  6,  1.03000,  -51.3936,  'MARION 1',  18.000,  22
6078,  2,  6.620,  -19.470,  0.000,  0.000,  6,  1.01889,  -52.7577,  'LA GRANG',  22.000,  25
6079,  2,  23.216,  -38.646,  0.000,  0.000,  6,  1.02313,  -53.3383,  'LA GRANG',  22.000,  25
6080,  2,  14.420,  -29.062,  0.000,  0.000,  6,  1.02174,  -53.1552,  'LA GRANG',  22.000,  25
6106,  2,  29.511,  -16.899,  0.000,  0.000,  6,  1.03584,  -53.5544,  'WINCHEST',  13.800,  25
6110,  2,  127.072,  -25.228,  0.000,  0.000,  6,  1.04000,  -47.3535,  'ROCKDALE',  13.800,  25
6111,  2,  132.997,  -26.071,  0.000,  0.000,  6,  1.04000,  -47.2423,  'ROCKDALE',  13.800,  25
6145,  2,  83.183,  -6.393,  0.000,  0.000,  6,  1.03000,  -50.8161,  'SAN ANTO',  13.800,  22
6146,  2,  86.239,  -6.595,  0.000,  0.000,  6,  1.03000,  -50.8638,  'SAN ANTO',  13.800,  22
6147,  3,  103.783,  -5.738,  0.000,  0.000,  6,  1.03000,  -49.5948,  'SAN ANTO',  13.800,  22
6148,  2,  165.265,  -14.158,  0.000,  0.000,  6,  1.03000,  -51.0384,  'SAN ANTO',  13.800,  22
6149,  2,  324.435,  -28.780,  0.000,  0.000,  6,  1.03000,  -51.5527,  'SAN ANTO',  13.800,  22
6164,  2,  61.207,  -12.848,  0.000,  0.000,  6,  1.03000,  -50.9726,  'SEGUIN 1',  13.800,  22
6165,  2,  58.887,  -12.069,  0.000,  0.000,  6,  1.03000,  -50.9000,  'SEGUIN 1',  13.800,  22
6166,  2,  125.496,  -28.577,  0.000,  0.000,  6,  1.03027,  -51.3061,  'SEGUIN 1',  13.800,  22
6167,  2,  69.776,  -15.218,  0.000,  0.000,  6,  1.03000,  -51.0504,  'SEGUIN 1',  13.800,  22
6188,  1,  121.894,  -20.968,  0.000,  0.000,  6,  1.01939,  -55.6543,  'COLUMBUS',  230.00,  25
6195,  1,  14.288,  1.280,  0.000,  0.000,  6,  1.00751,  -61.3632,  'INDUSTRY',  115.00,  25
6243,  2,  47.691,  -12.132,  0.000,  0.000,  6,  1.04000,  -51.7669,  'ELMENDOR',  13.800,  22
6244,  2,  57.043,  -14.316,  0.000,  0.000,  6,  1.04000,  -51.5538,  'ELMENDOR',  13.800,  22
6245,  2,  67.479,  -17.692,  0.000,  0.000,  6,  1.04000,  -51.6744,  'ELMENDOR',  13.800,  22
6246,  2,  132.366,  -37.877,  0.000,  0.000,  6,  1.04000,  -51.9933,  'ELMENDOR',  13.800,  22
6247,  2,  108.279,  -31.261,  0.000,  0.000,  6,  1.04000,  -52.0776,  'ELMENDOR',  13.800,  22
6248,  2,  52.592,  -13.337,  0.000,  0.000,  6,  1.04000,  -51.8196,  'ELMENDOR',  13.800,  22
6249,  2,  37.254,  -8.851,  0.000,  0.000,  6,  1.04000,  -51.5920,  'ELMENDOR',  13.800,  22
...
 0 /End of Bus data, Begin Generator data
1004,  '1',  89.577,  -30.380,  44.940,  -30.380,  1.01000,  0,  253.200,  0.00000,  1.00000,  0.00000,  0.00000,  1.00000,  1,  100.0,  211.000,  63.300
1009,  '1',  35.021,  -11.880,  17.570,  -11.880,  1.00000,  0,  99.000,  0.00000,  1.00000,  0.00000,  0.00000,  1.00000,  1,  100.0,  82.500,  24.750
1021,  '1',  84.697,  -28.730,  42.490,  -28.730,  1.00000,  0,  239.400,  0.00000,  1.00000,  0.00000,  0.00000,  1.00000,  1,  100.0,  199.500,  59.850
1023,  '1',  76.416,  -13.735,  38.340,  -25.920,  1.01000,  0,  216.000,  0.00000,  1.00000,  0.00000,  0.00000,  1.00000,  1,  100.0,  180.000,  54.000
1026,  '1',  52.727,  -17.880,  26.450,  -17.880,  1.00000,  0,  149.040,  0.00000,  1.00000,  0.00000,  0.00000,  1.00000,  1,  100.0,  124.200,  37.260
1033,  '1',  118.020,  -40.030,  59.210,  -40.030,  1.00000,  0,  333.600,  0.00000,  1.00000,  0.00000,  0.00000,  1.00000,  1,  100.0,  278.000,  83.400
1035,  '1',  38.208,  -12.960,  19.170,  -12.960,  1.00000,  0,  108.000,  0.00000,  1.00000,  0.00000,  0.00000,  1.00000,  1,  100.0,  90.000,  27.000
1039,  '1',  62.621,  -21.240,  31.420,  -21.240,  1.00000,  0,  177.000,  0.00000,  1.00000,  0.00000,  0.00000,  1.00000,  1,  100.0,  147.500,  44.250
1042,  '1',  69.001,  -11.023,  25.960,  -17.550,  1.00000,  0,  146.280,  0.00000,  1.00000,  0.00000,  0.00000,  1.00000,  1,  100.0,  121.900,  36.570
1048,  '1',  97.560,  -17.413,  165.530,  -36.100,  1.00000,  0,  390.240,  0.00000,  0.10170,  0.00000,  0.00000,  1.00000,  1,  100.0,  325.200,  97.560
1049,  '1',  97.560,  -5.409,  165.530,  -36.100,  1.00000,  0,  390.240,  0.00000,  0.13490,  0.00000,  0.00000,  1.00000,  1,  100.0,  325.200,  97.560
1053,  '1',  53.640,  -19.850,  91.010,  -19.850,  1.00000,  0,  214.560,  0.00000,  0.16870,  0.00000,  0.00000,  1.00000,  1,  100.0,  178.800,  53.640
1057,  '1',  67.925,  -17.280,  25.560,  -17.280,  1.00000,  0,  144.000,  0.00000,  1.00000,  0.00000,  0.00000,  1.00000,  1,  100.0,  120.000,  36.000
1066,  '1',  60.499,  -11.127,  30.350,  -20.520,  1.00000,  0,  171.000,  0.00000,  1.00000,  0.00000,  0.00000,  1.00000,  1,  100.0,  142.500,  42.750
1070,  '1',  68.140,  18.253,  34.190,  -23.110,  1.04000,  0,  192.600,  0.00000,  1.00000,  0.00000,  0.00000,  1.00000,  1,  100.0,  160.500,  48.150
1072,  '1',  -60.138,  -3.507,  97.800,  -21.330,  1.01000,  0,  230.560,  0.00000,  0.30820,  0.00000,  0.00000,  1.00000,  1,  100.0,  192.130,  57.640
1073,  '1',  57.640,  -9.327,  97.800,  -21.330,  1.01000,  0,  230.560,  0.00000,  0.19480,  0.00000,  0.00000,  1.00000,  1,  100.0,  192.130,  57.640
1074,  '1',  57.640,  -6.613,  97.800,  -21.330,  1.01000,  0,  230.560,  0.00000,  0.20960,  0.00000,  0.00000,  1.00000,  1,  100.0,  192.130,  57.640
1075,  '1',  57.640,  -8.010,  97.800,  -21.330,  1.01000,  0,  230.560,  0.00000,  0.12370,  0.00000,  0.00000,  1.00000,  1,  100.0,  192.130,  57.640
1076,  '1',  57.640,  -15.941,  97.800,  -21.330,  1.01000,  0,  230.560,  0.00000,  0.10660,  0.00000,  0.00000,  1.00000,  1,  100.0,  192.130,  57.640
1077,  '1',  57.640,  -7.281,  97.800,  -21.330,  1.01000,  0,  230.560,  0.00000,  0.15380,  0.00000,  0.00000,  1.00000,  1,  100.0,  192.130,  57.640
1081,  '1',  85.950,  -23.935,  145.830,  -31.800,  1.01000,  0,  343.800,  0.00000,  0.14960,  0.00000,  0.00000,  1.00000,  1,  100.0,  286.500,  85.950
1082,  '1',  63.680,  -21.600,  31.950,  -21.600,  1.00000,  0,  180.000,  0.00000,  1.00000,  0.00000,  0.00000,  1.00000,  1,  100.0,  150.000,  45.000
1084,  '1',  49.031,  24.600,  24.600,  -16.630,  1.04000,  0,  138.600,  0.00000,  1.00000,  0.00000,  0.00000,  1.00000,  1,  100.0,  115.500,  34.650
1088,  '1',  31.840,  -8.855,  15.970,  -10.800,  1.00000,  0,  90.000,  0.00000,  1.00000,  0.00000,  0.00000,  1.00000,  1,  100.0,  75.000,  22.500
1090,  '1',  30.566,  22.579,  40.150,  -27.140,  1.02000,  0,  226.200,  0.00000,  1.00000,  0.00000,  0.00000,  1.00000,  1,  100.0,  188.500,  56.550
2004,  '1',  117.540,  -43.490,  199.430,  -43.490,  1.02000,  0,  470.160,  0.00000,  0.10640,  0.00000,  0.00000,  1.00000,  1,  100.0,  391.800,  117.540
2005,  '1',  117.540,  -43.490,  199.430,  -43.490,  1.02000,  0,  470.160,  0.00000,  0.22750,  0.00000,  0.00000,  1.00000,  1,  100.0,  391.800,  117.540
2006,  '1',  117.540,  -35.727,  199.430,  -43.490,  1.02000,  0,  470.160,  0.00000,  0.20040,  0.00000,  0.00000,  1.00000,  1,  100.0,  391.800,  117.540
2019,  '1',  114.146,  -7.034,  46.430,  -31.390,  1.04000,  0,  261.600,  0.00000,  1.00000,  0.00000,  0.00000,  1.00000,  1,  100.0,  218.000,  65.400
2024,  '1',  50.000,  -18.500,  84.830,  -18.500,  1.02000,  0,  200.000,  0.00000,  0.15080,  0.00000,  0.00000,  1.00000,  1,  100.0,  166.670,  50.000
2057,  '1',  128.731,  -232.534,  335.520,  -87.840,  0.99000,  0,  864.000,  0.00000,  0.17700,  0.00000,  0.00000,  1.00000,  1,  100.0,  720.000,  216.000
2059,  '1',  31.416,  -11.520,  17.040,  -11.520,  1.00000,  0,  96.000,  0.00000,  1.00000,  0.00000,  0.00000,  1.00000,  1,  100.0,  80.000,  24.000
2062,  '1',  34.764,  -15.473,  28.840,  -19.500,  1.02000,  0,  162.480,  0.00000,  1.00000,  0.00000,  0.00000,  1.00000,  1,  100.0,  135.400,  40.620
2071,  '1',  65.720,  -21.600,  31.950,  -21.600,  1.00000,  0,  180.000,  0.00000,  1.00000,  0.00000,  0.00000,  1.00000,  1,  100.0,  150.000,  45.000
2078,  '1',  49.293,  -13.007,  23.960,  -16.200,  1.02000,  0,  135.000,  0.00000,  1.00000,  0.00000,  0.00000,  1.00000,  1,  100.0,  112.500,  33.750
2100,  '1',  51.117,  -21.600,  31.950,  -21.600,  1.02000,  0,  180.000,  0.00000,  1.00000,  0.00000,  0.00000,  1.00000,  1,  100.0,  150.000,  45.000
2103,  '1',  80.320,  -29.720,  136.280,  -29.720,  1.00000,  0,  321.280,  0.00000,  0.33430,  0.00000,  0.00000,  1.00000,  1,  100.0,  267.730,  80.320
2104,  '1',  80.320,  -29.720,  136.280,  -29.720,  1.00000,  0,  321.280,  0.00000,  0.31470,  0.00000,  0.00000,  1.00000,  1,  100.0,  267.730,  80.320
2105,  '1',  80.320,  -29.720,  136.280,  -29.720,  1.00000,  0,  321.280,  0.00000,  0.14160,  0.00000,  0.00000,  1.00000,  1,  100.0,  267.730,  80.320
2115,  '1',  55.410,  -20.500,  94.020,  -20.500,  1.00000,  0,  221.660,  0.00000,  0.14250,  0.00000,  0.00000,  1.00000,  1,  100.0,  184.720,  55.410
2116,  '1',  55.410,  -20.500,  94.020,  -20.500,  1.00000,  0,  221.660,  0.00000,  0.18690,  0.00000,  0.00000,  1.00000,  1,  100.0,  184.720,  55.410
2117,  '1',  55.410,  -20.500,  94.020,  -20.500,  1.00000,  0,  221.660,  0.00000,  0.32540,  0.00000,  0.00000,  1.00000,  1,  100.0,  184.720,  55.410
2118,  '1',  55.410,  -20.500,  94.020,  -20.500,  1.00000,  0,  221.660,  0.00000,  0.10610,  0.00000,  0.00000,  1.00000,  1,  100.0,  184.720,  55.410
2119,  '1',  55.410,  -20.500,  94.020,  -20.500,  1.00000,  0,  221.660,  0.00000,  0.13600,  0.00000,  0.00000,  1.00000,  1,  100.0,  184.720,  55.410
2120,  '1',  55.410,  -20.500,  94.020,  -20.500,  1.01000,  0,  221.660,  0.00000,  0.20680,  0.00000,  0.00000,  1.00000,  1,  100.0,  184.720,  55.410
2123,  '1',  64.264,  -26.160,  38.700,  -26.160,  1.00000,  0,  218.040,  0.00000,  1.00000,  0.00000,  0.00000,  1.00000,  1,  100.0,  181.700,  54.510
2127,  '1',  85.005,  -41.560,  61.470,  -41.560,  1.04000,  0,  346.320,  0.00000,  1.00000,  0.00000,  0.00000,  1.00000,  1,  100.0,  288.600,  86.580
3017,  '1',  71.961,  -12.522,  36.100,  -24.410,  1.01000,  0,  203.400,  0.00000,  1.00000,  0.00000,  0.00000,  1.00000,  1,  100.0,  169.500,  50.850
3020,  '1',  63.680,  -1.667,  31.950,  -21.600,  1.03000,  0,  180.000,  0.00000,  1.00000,  0.00000,  0.00000,  1.00000,  1,  100.0,  150.000,  45.000
3028,  '1',  87.626,  4.904,  42.600,  -28.800,  1.04000,  0,  240.000,  0.00000,  1.00000,  0.00000,  0.00000,  1.00000,  1,  100.0,  200.000,  60.000
3034,  '1',  55.399,  2.498,  27.800,  -18.790,  1.03000,  0,  156.600,  0.00000,  1.00000,  0.00000,  0.00000,  1.00000,  1,  100.0,  130.500,  39.150
3039,  '1',  88.727,  13.743,  44.520,  -30.100,  1.04000,  0,  250.800,  0.00000,  1.00000,  0.00000,  0.00000,  1.00000,  1,  100.0,  209.000,  62.700
3045,  '1',  134.100,  9.061,  227.520,  -49.620,  1.04000,  0,  536.400,  0.00000,  0.14470,  0.00000,  0.00000,  1.00000,  1,  100.0,  447.000,  134.100
3048,  '1',  102.313,  -34.700,  51.330,  -34.700,  1.04000,  0,  289.200,  0.00000,  1.00000,  0.00000,  0.00000,  1.00000,  1,  100.0,  241.000,  72.300
3055,  '1',  104.084,  11.495,  52.220,  -35.300,  1.04000,  0,  294.200,  0.00000,  1.00000,  0.00000,  0.00000,  1.00000,  1,  100.0,  245.170,  73.550
3056,  '1',  104.084,  7.460,  52.220,  -35.300,  1.04000,  0,  294.200,  0.00000,  1.00000,  0.00000,  0.00000,  1.00000,  1,  100.0,  245.170,  73.550
3057,  '1',  104.084,  6.494,  52.220,  -35.300,  1.04000,  0,  294.200,  0.00000,  1.00000,  0.00000,  0.00000,  1.00000,  1,  100.0,  245.170,  73.550
3060,  '1',  70.314,  3.862,  35.280,  -23.850,  1.04000,  0,  198.750,  0.00000,  1.00000,  0.00000,  0.00000,  1.00000,  1,  100.0,  165.630,  49.690
3061,  '1',  70.314,  4.245,  35.280,  -23.850,  1.04000,  0,  198.750,  0.00000,  1.00000,  0.00000,  0.00000,  1.00000,  1,  100.0,  165.630,  49.690
3062,  '1',  70.314,  5.942,  35.280,  -23.850,  1.04000,  0,  198.750,  0.00000,  1.00000,  0.00000,  0.00000,  1.00000,  1,  100.0,  165.630,  49.690
3063,  '1',  70.314,  4.327,  35.280,  -23.850,  1.04000,  0,  198.750,  0.00000,  1.00000,  0.00000,  0.00000,  1.00000,  1,  100.0,  165.630,  49.690
3065,  '1',  34.172,  -11.590,  17.150,  -11.590,  1.00000,  0,  96.600,  0.00000,  1.00000,  0.00000,  0.00000,  1.00000,  1,  100.0,  80.500,  24.150
3068,  '1',  63.680,  18.242,  31.950,  -21.600,  1.04000,  0,  180.000,  0.00000,  1.00000,  0.00000,  0.00000,  1.00000,  1,  100.0,  150.000,  45.000
3071,  '1',  72.256,  -24.510,  36.250,  -24.510,  1.00000,  0,  204.240,  0.00000,  1.00000,  0.00000,  0.00000,  1.00000,  1,  100.0,  170.200,  51.060
3074,  '1',  42.368,  -14.370,  21.260,  -14.370,  1.00000,  0,  119.760,  0.00000,  1.00000,  0.00000,  0.00000,  1.00000,  1,  100.0,  99.800,  29.940
3081,  '1',  105.709,  8.981,  53.040,  -35.860,  1.04000,  0,  298.800,  0.00000,  1.00000,  0.00000,  0.00000,  1.00000,  1,  100.0,  249.000,  74.700
3084,  '1',  98.701,  -29.051,  49.520,  -33.480,  1.00000,  0,  279.000,  0.00000,  1.00000,  0.00000,  0.00000,  1.00000,  1,  100.0,  232.500,  69.750
3086,  '1',  31.840,  -10.800,  15.970,  -10.800,  1.00000,  0,  90.000,  0.00000,  1.00000,  0.00000,  0.00000,  1.00000,  1,  100.0,  75.000,  22.500
3087,  '1',  42.453,  -10.800,  15.970,  -10.800,  1.00000,  0,  90.000,  0.00000,  1.00000,  0.00000,  0.00000,  1.00000,  1,  100.0,  75.000,  22.500
3092,  '1',  84.907,  7.493,  42.600,  -28.800,  1.04000,  0,  240.000,  0.00000,  1.00000,  0.00000,  0.00000,  1.00000,  1,  100.0,  200.000,  60.000
3095,  '1',  51.199,  5.525,  25.690,  -17.370,  1.04000,  0,  144.720,  0.00000,  1.00000,  0.00000,  0.00000,  1.00000,  1,  100.0,  120.600,  36.180
3098,  '1',  67.925,  5.859,  34.080,  -23.040,  1.04000,  0,  192.000,  0.00000,  1.00000,  0.00000,  0.00000,  1.00000,  1,  100.0,  160.000,  48.000
3106,  '1',  -2.770,  -12.596,  62.477,  -2.690,  1.00000,  0,  65.880,  0.00000,  0.29220,  0.00000,  0.00000,  1.00000,  1,  100.0,  162.800,  0.000
3110,  '1',  35.661,  4.321,  17.890,  -12.100,  1.04000,  0,  100.800,  0.00000,  1.00000,  0.00000,  0.00000,  1.00000,  1,  100.0,  84.000,  25.200
3112,  '1',  31.755,  -10.770,  15.930,  -10.770,  1.00000,  0,  89.760,  0.00000,  1.00000,  0.00000,  0.00000,  1.00000,  1,  100.0,  74.800,  22.440
3113,  '1',  31.755,  -10.770,  15.930,  -10.770,  1.00000,  0,  89.760,  0.00000,  1.00000,  0.00000,  0.00000,  1.00000,  1,  100.0,  74.800,  22.440
3118,  '1',  50.944,  -17.280,  25.560,  -17.280,  1.00000,  0,  144.000,  0.00000,  1.00000,  0.00000,  0.00000,  1.00000,  1,  100.0,  120.000,  36.000
3122,  '1',  83.633,  -21.032,  41.960,  -28.370,  1.00000,  0,  236.400,  0.00000,  1.00000,  0.00000,  0.00000,  1.00000,  1,  100.0,  197.000,  59.100
3127,  '1',  57.312,  -19.440,  28.760,  -19.440,  1.00000,  0,  162.000,  0.00000,  1.00000,  0.00000,  0.00000,  1.00000,  1,  100.0,  135.000,  40.500
3129,  '1',  53.706,  -18.220,  26.940,  -18.220,  1.00000,  0,  151.800,  0.00000,  1.00000,  0.00000,  0.00000,  1.00000,  1,  100.0,  126.500,  37.950
3131,  '1',  48.397,  -16.420,  24.280,  -16.420,  1.02000,  0,  136.800,  0.00000,  1.00000,  0.00000,  0.00000,  1.00000,  1,  100.0,  114.000,  34.200
3137,  '1',  42.963,  12.634,  21.560,  -14.570,  1.03000,  0,  121.440,  0.00000,  1.00000,  0.00000,  0.00000,  1.00000,  1,  100.0,  101.200,  30.360
3141,  '1',  38.842,  -13.180,  19.490,  -13.180,  1.00000,  0,  109.800,  0.00000,  1.00000,  0.00000,  0.00000,  1.00000,  1,  100.0,  91.500,  27.450
4010,  '1',  85.586,  -0.299,  42.940,  -29.030,  1.03000,  0,  241.920,  0.00000,  1.00000,  0.00000,  0.00000,  1.00000,  1,  100.0,  201.600,  60.480
4026,  '1',  123.000,  -3.399,  191.060,  -50.020,  1.03000,  0,  492.000,  0.00000,  0.32770,  0.00000,  0.00000,  1.00000,  1,  100.0,  410.000,  123.000
4030,  '1',  210.264,  -83.902,  290.040,  -75.930,  1.01000,  0,  746.880,  0.00000,  0.27970,  0.00000,  0.00000,  1.00000,  1,  100.0,  622.400,  186.720
4050,  '1',  84.907,  -28.800,  42.600,  -28.800,  1.00000,  0,  240.000,  0.00000,  1.00000,  0.00000,  0.00000,  1.00000,  1,  100.0,  200.000,  60.000
4058,  '1',  43.200,  -0.029,  73.300,  -15.980,  1.03000,  0,  172.800,  0.00000,  0.13700,  0.00000,  0.00000,  1.00000,  1,  100.0,  144.000,  43.200
4059,  '1',  43.200,  -0.739,  73.300,  -15.980,  1.03000,  0,  172.800,  0.00000,  0.15140,  0.00000,  0.00000,  1.00000,  1,  100.0,  144.000,  43.200
4060,  '1',  43.200,  -0.030,  73.300,  -15.980,  1.03000,  0,  172.800,  0.00000,  0.13940,  0.00000,  0.00000,  1.00000,  1,  100.0,  144.000,  43.200
4061,  '1',  51.700,  -0.136,  87.720,  -19.130,  1.03000,  0,  206.800,  0.00000,  0.21560,  0.00000,  0.00000,  1.00000,  1,  100.0,  172.330,  51.700
4062,  '1',  51.700,  -0.783,  87.720,  -19.130,  1.03000,  0,  206.800,  0.00000,  0.25930,  0.00000,  0.00000,  1.00000,  1,  100.0,  172.330,  51.700
4063,  '1',  51.700,  0.518,  87.720,  -19.130,  1.03000,  0,  206.800,  0.00000,  0.14410,  0.00000,  0.00000,  1.00000,  1,  100.0,  172.330,  51.700
4082,  '1',  73.020,  6.925,  123.890,  -27.020,  1.04000,  0,  292.080,  0.00000,  0.13810,  0.00000,  0.00000,  1.00000,  1,  100.0,  243.400,  73.020
4083,  '1',  73.020,  7.469,  123.890,  -27.020,  1.04000,  0,  292.080,  0.00000,  0.15700,  0.00000,  0.00000,  1.00000,  1,  100.0,  243.400,  73.020
4084,  '1',  73.020,  14.294,  123.890,  -27.020,  1.04000,  0,  292.080,  0.00000,  0.19110,  0.00000,  0.00000,  1.00000,  1,  100.0,  243.400,  73.020
4085,  '1',  105.600,  15.747,  179.170,  -39.070,  1.04000,  0,  422.400,  0.00000,  0.31920,  0.00000,  0.00000,  1.00000,  1,  100.0,  352.000,  105.600
4105,  '1',  78.864,  -22.953,  38.340,  -25.920,  1.01000,  0,  216.000,  0.00000,  1.00000,  0.00000,  0.00000,  1.00000,  1,  100.0,  180.000,  54.000
4115,  '1',  39.540,  17.029,  67.090,  -14.630,  1.04000,  0,  158.160,  0.00000,  0.11310,  0.00000,  0.00000,  1.00000,  1,  100.0,  131.800,  39.540
4116,  '1',  39.540,  15.799,  67.090,  -14.630,  1.04000,  0,  158.160,  0.00000,  0.15150,  0.00000,  0.00000,  1.00000,  1,  100.0,  131.800,  39.540
4142,  '1',  79.812,  9.886,  40.040,  -27.070,  1.04000,  0,  225.600,  0.00000,  1.00000,  0.00000,  0.00000,  1.00000,  1,  100.0,  188.000,  56.400
4153,  '1',  120.228,  22.277,  60.320,  -40.780,  1.04000,  0,  339.840,  0.00000,  1.00000,  0.00000,  0.00000,  1.00000,  1,  100.0,  283.200,  84.960
4160,  '1',  59.330,  6.115,  100.660,  -21.950,  1.03000,  0,  237.320,  0.00000,  0.18820,  0.00000,  0.00000,  1.00000,  1,  100.0,  197.770,  59.330
4161,  '1',  59.330,  2.975,  100.660,  -21.950,  1.03000,  0,  237.320,  0.00000,  0.12390,  0.00000,  0.00000,  1.00000,  1,  100.0,  197.770,  59.330
4162,  '1',  59.330,  1.770,  100.660,  -21.950,  1.03000,  0,  237.320,  0.00000,  0.17220,  0.00000,  0.00000,  1.00000,  1,  100.0,  197.770,  59.330
4166,  '1',  85.331,  -28.940,  42.810,  -28.940,  1.00000,  0,  241.200,  0.00000,  1.00000,  0.00000,  0.00000,  1.00000,  1,  100.0,  201.000,  60.300
4177,  '1',  63.680,  0.804,  31.950,  -21.600,  1.04000,  0,  180.000,  0.00000,  1.00000,  0.00000,  0.00000,  1.00000,  1,  100.0,  150.000,  45.000
4181,  '1',  87.667,  42.620,  42.620,  -28.810,  1.04000,  0,  240.120,  0.00000,  1.00000,  0.00000,  0.00000,  1.00000,  1,  100.0,  200.100,  60.030
4183,  '1',  86.180,  42.169,  43.240,  -29.230,  1.03000,  0,  243.600,  0.00000,  1.00000,  0.00000,  0.00000,  1.00000,  1,  100.0,  203.000,  60.900
4192,  '1',  428.190,  -28.087,  726.490,  -158.450,  1.02000,  0,  1712.76,  0.00000,  0.14340,  0.00000,  0.00000,  1.00000,  1,  100.0,  1427.31,  428.190
4194,  '1',  85.586,  -0.608,  42.940,  -29.030,  1.02000,  0,  241.920,  0.00000,  1.00000,  0.00000,  0.00000,  1.00000,  1,  100.0,  201.600,  60.480
4195,  '1',  39.057,  -13.250,  19.600,  -13.250,  1.00000,  0,  110.400,  0.00000,  1.00000,  0.00000,  0.00000,  1.00000,  1,  100.0,  92.000,  27.600
5020,  '1',  52.576,  -17.280,  25.560,  -17.280,  1.00000,  0,  144.000,  0.00000,  1.00000,  0.00000,  0.00000,  1.00000,  1,  100.0,  120.000,  36.000
5037,  '1',  92.540,  -34.240,  157.010,  -34.240,  1.02000,  0,  370.160,  0.00000,  0.29910,  0.00000,  0.00000,  1.00000,  1,  100.0,  308.470,  92.540
5038,  '1',  92.540,  -34.240,  157.010,  -34.240,  1.02000,  0,  370.160,  0.00000,  0.12330,  0.00000,  0.00000,  1.00000,  1,  100.0,  308.470,  92.540
5039,  '1',  92.540,  -34.240,  157.010,  -34.240,  1.02000,  0,  370.160,  0.00000,  0.21470,  0.00000,  0.00000,  1.00000,  1,  100.0,  308.470,  92.540
5040,  '1',  92.540,  -34.240,  157.010,  -34.240,  1.02000,  0,  370.160,  0.00000,  0.19240,  0.00000,  0.00000,  1.00000,  1,  100.0,  308.470,  92.540
5041,  '1',  92.540,  -34.240,  157.010,  -34.240,  1.02000,  0,  370.160,  0.00000,  0.11590,  0.00000,  0.00000,  1.00000,  1,  100.0,  308.470,  92.540
5042,  '1',  92.540,  -34.240,  157.010,  -34.240,  1.02000,  0,  370.160,  0.00000,  0.19130,  0.00000,  0.00000,  1.00000,  1,  100.0,  308.470,  92.540
5057,  '1',  95.200,  -35.230,  161.530,  -35.230,  1.00000,  0,  380.820,  0.00000,  0.19130,  0.00000,  0.00000,  1.00000,  1,  100.0,  317.350,  95.200
5058,  '1',  95.200,  -35.230,  161.530,  -35.230,  1.00000,  0,  380.820,  0.00000,  0.29820,  0.00000,  0.00000,  1.00000,  1,  100.0,  317.350,  95.200
5067,  '1',  131.480,  -29.447,  223.080,  -48.650,  1.03000,  0,  525.920,  0.00000,  0.32610,  0.00000,  0.00000,  1.00000,  1,  100.0,  438.270,  131.480
5068,  '1',  131.480,  -28.650,  223.080,  -48.650,  1.03000,  0,  525.920,  0.00000,  0.11690,  0.00000,  0.00000,  1.00000,  1,  100.0,  438.270,  131.480
5069,  '1',  131.480,  -27.254,  223.080,  -48.650,  1.03000,  0,  525.920,  0.00000,  0.10560,  0.00000,  0.00000,  1.00000,  1,  100.0,  438.270,  131.480
5166,  '1',  37.950,  11.271,  64.390,  -14.040,  1.04000,  0,  151.800,  0.00000,  0.13910,  0.00000,  0.00000,  1.00000,  1,  100.0,  126.500,  37.950
5198,  '1',  65.720,  -21.600,  31.950,  -21.600,  1.00000,  0,  180.000,  0.00000,  1.00000,  0.00000,  0.00000,  1.00000,  1,  100.0,  150.000,  45.000
5206,  '1',  74.600,  -27.600,  126.570,  -27.600,  1.01000,  0,  298.400,  0.00000,  0.11980,  0.00000,  0.00000,  1.00000,  1,  100.0,  248.670,  74.600
5207,  '1',  74.600,  -27.600,  126.570,  -27.600,  1.01000,  0,  298.400,  0.00000,  0.18090,  0.00000,  0.00000,  1.00000,  1,  100.0,  248.670,  74.600
5208,  '1',  74.600,  -27.600,  126.570,  -27.600,  1.01000,  0,  298.400,  0.00000,  0.10560,  0.00000,  0.00000,  1.00000,  1,  100.0,  248.670,  74.600
5238,  '1',  98.580,  -32.400,  47.930,  -32.400,  1.00000,  0,  270.000,  0.00000,  1.00000,  0.00000,  0.00000,  1.00000,  1,  100.0,  225.000,  67.500
5243,  '1',  65.720,  -21.600,  31.950,  -21.600,  1.00000,  0,  180.000,  0.00000,  1.00000,  0.00000,  0.00000,  1.00000,  1,  100.0,  150.000,  45.000
5262,  '1',  1215.000,  -99.630,  447.120,  -99.630,  1.01000,  0,  1458.00,  0.00000,  0.26310,  0.00000,  0.00000,  1.00000,  1,  100.0,  1215.00,  364.500
5263,  '1',  1059.770,  -99.630,  447.120,  -99.630,  1.01000,  0,  1458.00,  0.00000,  0.16260,  0.00000,  0.00000,  1.00000,  1,  100.0,  1215.00,  364.500
5281,  '1',  80.320,  -29.720,  136.280,  -29.720,  1.00000,  0,  321.280,  0.00000,  0.10660,  0.00000,  0.00000,  1.00000,  1,  100.0,  267.730,  80.320
5282,  '1',  80.320,  -29.720,  136.280,  -29.720,  1.00000,  0,  321.280,  0.00000,  0.23940,  0.00000,  0.00000,  1.00000,  1,  100.0,  267.730,  80.320
5283,  '1',  80.320,  -29.720,  136.280,  -29.720,  1.00000,  0,  321.280,  0.00000,  0.10650,  0.00000,  0.00000,  1.00000,  1,  100.0,  267.730,  80.320
5298,  '1',  34.500,  41.376,  58.530,  -12.760,  1.04000,  0,  138.000,  0.00000,  0.13260,  0.00000,  0.00000,  1.00000,  1,  100.0,  115.000,  34.500
5299,  '1',  34.500,  19.965,  58.530,  -12.760,  1.04000,  0,  138.000,  0.00000,  0.32280,  0.00000,  0.00000,  1.00000,  1,  100.0,  115.000,  34.500
5300,  '1',  34.500,  24.107,  58.530,  -12.760,  1.04000,  0,  138.000,  0.00000,  0.21910,  0.00000,  0.00000,  1.00000,  1,  100.0,  115.000,  34.500
5302,  '1',  139.130,  24.860,  236.050,  -51.480,  1.04000,  0,  556.500,  0.00000,  0.13300,  0.00000,  0.00000,  1.00000,  1,  100.0,  463.750,  139.130
5303,  '1',  139.130,  33.766,  236.050,  -51.480,  1.04000,  0,  556.500,  0.00000,  0.17920,  0.00000,  0.00000,  1.00000,  1,  100.0,  463.750,  139.130
5319,  '1',  78.840,  -29.170,  133.770,  -29.170,  1.01000,  0,  315.360,  0.00000,  0.25070,  0.00000,  0.00000,  1.00000,  1,  100.0,  262.800,  78.840
5320,  '1',  78.840,  -29.170,  133.770,  -29.170,  1.01000,  0,  315.360,  0.00000,  0.28140,  0.00000,  0.00000,  1.00000,  1,  100.0,  262.800,  78.840
5321,  '1',  78.840,  -29.170,  133.770,  -29.170,  1.01000,  0,  315.360,  0.00000,  0.12810,  0.00000,  0.00000,  1.00000,  1,  100.0,  262.800,  78.840
5324,  '1',  85.220,  29.050,  144.590,  -31.530,  1.04000,  0,  340.880,  0.00000,  0.21670,  0.00000,  0.00000,  1.00000,  1,  100.0,  284.070,  85.220
5325,  '1',  85.220,  29.657,  144.590,  -31.530,  1.04000,  0,  340.880,  0.00000,  0.15030,  0.00000,  0.00000,  1.00000,  1,  100.0,  284.070,  85.220
5326,  '1',  85.220,  85.518,  144.590,  -31.530,  1.04000,  0,  340.880,  0.00000,  0.18810,  0.00000,  0.00000,  1.00000,  1,  100.0,  284.070,  85.220
5360,  '1',  386.646,  -168.402,  469.730,  -122.980,  1.01000,  0,  1209.60,  0.00000,  0.25510,  0.00000,  0.00000,  1.00000,  1,  100.0,  1008.00,  302.400
5364,  '1',  64.000,  -23.680,  108.590,  -23.680,  1.00000,  0,  256.000,  0.00000,  0.13030,  0.00000,  0.00000,  1.00000,  1,  100.0,  213.330,  64.000
5365,  '1',  64.000,  -23.680,  108.590,  -23.680,  1.00000,  0,  256.000,  0.00000,  0.11650,  0.00000,  0.00000,  1.00000,  1,  100.0,  213.330,  64.000
5366,  '1',  64.000,  -23.680,  108.590,  -23.680,  1.00000,  0,  256.000,  0.00000,  0.15490,  0.00000,  0.00000,  1.00000,  1,  100.0,  213.330,  64.000
5367,  '1',  64.000,  -23.680,  108.590,  -23.680,  1.00000,  0,  256.000,  0.00000,  0.10020,  0.00000,  0.00000,  1.00000,  1,  100.0,  213.330,  64.000
5368,  '1',  64.000,  -23.680,  108.590,  -23.680,  1.00000,  0,  256.000,  0.00000,  0.36180,  0.00000,  0.00000,  1.00000,  1,  100.0,  213.330,  64.000
5369,  '1',  64.000,  -23.680,  108.590,  -23.680,  1.00000,  0,  256.000,  0.00000,  0.24440,  0.00000,  0.00000,  1.00000,  1,  100.0,  213.330,  64.000
5382,  '1',  62.700,  47.704,  106.380,  -23.200,  1.04000,  0,  250.800,  0.00000,  0.24770,  0.00000,  0.00000,  1.00000,  1,  100.0,  209.000,  62.700
5383,  '1',  62.700,  41.866,  106.380,  -23.200,  1.04000,  0,  250.800,  0.00000,  0.39820,  0.00000,  0.00000,  1.00000,  1,  100.0,  209.000,  62.700
5399,  '1',  72.555,  -20.472,  35.270,  -23.850,  1.04000,  0,  198.720,  0.00000,  1.00000,  0.00000,  0.00000,  1.00000,  1,  100.0,  165.600,  49.680
5415,  '1',  36.600,  -13.540,  62.100,  -13.540,  1.00000,  0,  146.400,  0.00000,  0.14030,  0.00000,  0.00000,  1.00000,  1,  100.0,  122.000,  36.600
5416,  '1',  36.600,  -13.540,  62.100,  -13.540,  1.00000,  0,  146.400,  0.00000,  0.26480,  0.00000,  0.00000,  1.00000,  1,  100.0,  122.000,  36.600
5417,  '1',  36.600,  -13.540,  62.100,  -13.540,  1.00000,  0,  146.400,  0.00000,  0.16960,  0.00000,  0.00000,  1.00000,  1,  100.0,  122.000,  36.600
5418,  '1',  35.640,  -13.190,  60.470,  -13.190,  1.00000,  0,  142.560,  0.00000,  0.34000,  0.00000,  0.00000,  1.00000,  1,  100.0,  118.800,  35.640
5419,  '1',  35.640,  -13.190,  60.470,  -13.190,  1.00000,  0,  142.560,  0.00000,  0.16420,  0.00000,  0.00000,  1.00000,  1,  100.0,  118.800,  35.640
5444,  '1',  604.980,  -223.840,  1026.440,  -223.840,  1.01000,  0,  2419.92,  0.00000,  0.34260,  0.00000,  0.00000,  1.00000,  1,  100.0,  2016.60,  604.980
6006,  '1',  63.900,  6.988,  108.420,  -23.640,  1.04000,  0,  255.600,  0.00000,  0.18770,  0.00000,  0.00000,  1.00000,  1,  100.0,  213.000,  63.900
6007,  '1',  127.800,  11.075,  216.830,  -47.290,  1.04000,  0,  511.200,  0.00000,  0.13420,  0.00000,  0.00000,  1.00000,  1,  100.0,  426.000,  127.800
6008,  '1',  59.500,  6.317,  100.950,  -22.010,  1.04000,  0,  238.000,  0.00000,  0.20160,  0.00000,  0.00000,  1.00000,  1,  100.0,  198.330,  59.500
6009,  '1',  59.500,  3.685,  100.950,  -22.010,  1.04000,  0,  238.000,  0.00000,  0.18430,  0.00000,  0.00000,  1.00000,  1,  100.0,  198.330,  59.500
6010,  '1',  59.500,  4.965,  100.950,  -22.010,  1.04000,  0,  238.000,  0.00000,  0.15620,  0.00000,  0.00000,  1.00000,  1,  100.0,  198.330,  59.500
6069,  '1',  54.410,  -20.130,  92.320,  -20.130,  1.03000,  0,  217.640,  0.00000,  0.22480,  0.00000,  0.00000,  1.00000,  1,  100.0,  181.370,  54.410
6070,  '1',  54.410,  -9.623,  92.320,  -20.130,  1.03000,  0,  217.640,  0.00000,  0.24660,  0.00000,  0.00000,  1.00000,  1,  100.0,  181.370,  54.410
6071,  '1',  54.410,  -20.130,  92.320,  -20.130,  1.03000,  0,  217.640,  0.00000,  0.15280,  0.00000,  0.00000,  1.00000,  1,  100.0,  181.370,  54.410
6072,  '1',  54.410,  -11.472,  92.320,  -20.130,  1.03000,  0,  217.640,  0.00000,  0.19250,  0.00000,  0.00000,  1.00000,  1,  100.0,  181.370,  54.410
6073,  '1',  54.410,  -17.448,  92.320,  -20.130,  1.03000,  0,  217.640,  0.00000,  0.14260,  0.00000,  0.00000,  1.00000,  1,  100.0,  181.370,  54.410
6074,  '1',  54.410,  -17.945,  92.320,  -20.130,  1.03000,  0,  217.640,  0.00000,  0.11150,  0.00000,  0.00000,  1.00000,  1,  100.0,  181.370,  54.410
6078,  '1',  169.000,  -68.730,  262.510,  -68.730,  1.00000,  0,  676.000,  0.00000,  0.28900,  0.00000,  0.00000,  1.00000,  1,  100.0,  563.330,  169.000
6079,  '1',  169.000,  -68.730,  262.510,  -68.730,  1.00000,  0,  676.000,  0.00000,  0.25330,  0.00000,  0.00000,  1.00000,  1,  100.0,  563.330,  169.000
6080,  '1',  169.000,  -68.730,  262.510,  -68.730,  1.00000,  0,  676.000,  0.00000,  0.32510,  0.00000,  0.00000,  1.00000,  1,  100.0,  563.330,  169.000
6106,  '1',  36.300,  61.590,  61.590,  -13.430,  1.04000,  0,  145.200,  0.00000,  0.12010,  0.00000,  0.00000,  1.00000,  1,  100.0,  121.000,  36.300
6110,  '1',  177.180,  6.630,  275.220,  -72.050,  1.04000,  0,  708.720,  0.00000,  0.16800,  0.00000,  0.00000,  1.00000,  1,  100.0,  590.600,  177.180
6111,  '1',  198.450,  6.945,  308.260,  -80.700,  1.04000,  0,  793.800,  0.00000,  0.21900,  0.00000,  0.00000,  1.00000,  1,  100.0,  661.500,  198.450
6145,  '1',  133.800,  -18.700,  227.010,  -49.510,  1.03000,  0,  535.200,  0.00000,  0.14770,  0.00000,  0.00000,  1.00000,  1,  100.0,  446.000,  133.800
6146,  '1',  133.800,  -19.297,  227.010,  -49.510,  1.03000,  0,  535.200,  0.00000,  0.11950,  0.00000,  0.00000,  1.00000,  1,  100.0,  446.000,  133.800
6147,  '1',  312.159,  -19.115,  474.390,  -103.450,  1.03000,  0,  1118.40,  0.00000,  0.10440,  0.00000,  0.00000,  1.00000,  1,  100.0,  932.000,  279.600
6148,  '1',  216.600,  -36.642,  367.500,  -80.140,  1.03000,  0,  866.400,  0.00000,  0.23830,  0.00000,  0.00000,  1.00000,  1,  100.0,  722.000,  216.600
6149,  '1',  216.600,  -69.388,  367.500,  -80.140,  1.03000,  0,  866.400,  0.00000,  0.12770,  0.00000,  0.00000,  1.00000,  1,  100.0,  722.000,  216.600
6164,  '1',  70.520,  -14.066,  119.640,  -26.090,  1.03000,  0,  282.060,  0.00000,  0.30070,  0.00000,  0.00000,  1.00000,  1,  100.0,  235.050,  70.520
6165,  '1',  70.520,  -12.998,  119.640,  -26.090,  1.03000,  0,  282.060,  0.00000,  0.18390,  0.00000,  0.00000,  1.00000,  1,  100.0,  235.050,  70.520
6166,  '1',  70.520,  -26.090,  119.640,  -26.090,  1.03000,  0,  282.060,  0.00000,  0.25100,  0.00000,  0.00000,  1.00000,  1,  100.0,  235.050,  70.520
6167,  '1',  70.520,  -16.067,  119.640,  -26.090,  1.03000,  0,  282.060,  0.00000,  0.13970,  0.00000,  0.00000,  1.00000,  1,  100.0,  235.050,  70.520
6243,  '1',  54.900,  9.258,  93.150,  -20.310,  1.04000,  0,  219.600,  0.00000,  0.28800,  0.00000,  0.00000,  1.00000,  1,  100.0,  183.000,  54.900
6244,  '1',  89.400,  10.721,  151.680,  -33.080,  1.04000,  0,  357.600,  0.00000,  0.12500,  0.00000,  0.00000,  1.00000,  1,  100.0,  298.000,  89.400
6245,  '1',  89.400,  12.681,  151.680,  -33.080,  1.04000,  0,  357.600,  0.00000,  0.24960,  0.00000,  0.00000,  1.00000,  1,  100.0,  298.000,  89.400
6246,  '1',  89.400,  25.185,  151.680,  -33.080,  1.04000,  0,  357.600,  0.00000,  0.16990,  0.00000,  0.00000,  1.00000,  1,  100.0,  298.000,  89.400
6247,  '1',  55.000,  20.806,  93.320,  -20.350,  1.04000,  0,  220.000,  0.00000,  0.11730,  0.00000,  0.00000,  1.00000,  1,  100.0,  183.330,  55.000
6248,  '1',  55.000,  10.372,  93.320,  -20.350,  1.04000,  0,  220.000,  0.00000,  0.27550,  0.00000,  0.00000,  1.00000,  1,  100.0,  183.330,  55.000
6249,  '1',  55.000,  6.745,  93.320,  -20.350,  1.04000,  0,  220.000,  0.00000,  0.17480,  0.00000,  0.00000,  1.00000,  1,  100.0,  183.330,  55.000
6257,  '1',  58.200,  -21.530,  98.750,  -21.530,  1.02000,  0,  232.800,  0.00000,  0.15520,  0.00000,  0.00000,  1.00000,  1,  100.0,  194.000,  58.200
6258,  '1',  58.200,  -21.530,  98.750,  -21.530,  1.02000,  0,  232.800,  0.00000,  0.26310,  0.00000,  0.00000,  1.00000,  1,  100.0,  194.000,  58.200
6260,  '1',  77.100,  -28.530,  130.810,  -28.530,  1.02000,  0,  308.400,  0.00000,  0.11970,  0.00000,  0.00000,  1.00000,  1,  100.0,  257.000,  77.100
...
 0 /End of Generator data, Begin Branch data
1004,  1023,  '99',  0.01117,  0.34555,  0.00000,  0.00,  0.00,  0.00,  0.00000,  0.000,  0.00000,  0.00000,  0.00000,  0.00000,  1
1004,  1057,  '99',  0.63644,  4.14945,  0.00000,  0.00,  0.00,  0.00,  0.00000,  0.000,  0.00000,  0.00000,  0.00000,  0.00000,  1
1004,  2019,  '99',  0.12236,  1.16965,  0.00000,  0.00,  0.00,  0.00,  0.00000,  0.000,  0.00000,  0.00000,  0.00000,  0.00000,  1
1004,  2062,  '99',  0.92374,  4.44420,  0.00000,  0.00,  0.00,  0.00,  0.00000,  0.000,  0.00000,  0.00000,  0.00000,  0.00000,  1
1004,  2100,  '99',  0.05237,  0.64263,  0.00000,  0.00,  0.00,  0.00,  0.00000,  0.000,  0.00000,  0.00000,  0.00000,  0.00000,  1
1004,  2127,  '99',  0.16819,  0.98300,  0.00000,  0.00,  0.00,  0.00,  0.00000,  0.000,  0.00000,  0.00000,  0.00000,  0.00000,  1
1004,  3034,  '99',  0.36911,  2.83891,  0.00000,  0.00,  0.00,  0.00,  0.00000,  0.000,  0.00000,  0.00000,  0.00000,  0.00000,  1
1004,  3039,  '99',  0.03307,  0.33798,  0.00000,  0.00,  0.00,  0.00,  0.00000,  0.000,  0.00000,  0.00000,  0.00000,  0.00000,  1
1004,  3048,  '99',  0.04549,  0.33682,  0.00000,  0.00,  0.00,  0.00,  0.00000,  0.000,  0.00000,  0.00000,  0.00000,  0.00000,  1
1004,  3081,  '99',  0.04036,  0.42773,  0.00000,  0.00,  0.00,  0.00,  0.00000,  0.000,  0.00000,  0.00000,  0.00000,  0.00000,  1
1004,  3086,  '99',  0.55476,  3.93490,  0.00000,  0.00,  0.00,  0.00,  0.00000,  0.000,  0.00000,  0.00000,  0.00000,  0.00000,  1
1004,  3087,  '99',  0.55476,  3.93490,  0.00000,  0.00,  0.00,  0.00,  0.00000,  0.000,  0.00000,  0.00000,  0.00000,  0.00000,  1
1004,  3098,  '99',  0.03024,  0.47030,  0.00000,  0.00,  0.00,  0.00,  0.00000,  0.000,  0.00000,  0.00000,  0.00000,  0.00000,  1
1004,  3110,  '99',  0.06262,  0.51381,  0.00000,  0.00,  0.00,  0.00,  0.00000,  0.000,  0.00000,  0.00000,  0.00000,  0.00000,  1
1004,  3118,  '99',  0.21367,  2.10619,  0.00000,  0.00,  0.00,  0.00,  0.00000,  0.000,  0.00000,  0.00000,  0.00000,  0.00000,  1
1004,  3129,  '99',  1.39104,  4.34953,  0.00000,  0.00,  0.00,  0.00,  0.00000,  0.000,  0.00000,  0.00000,  0.00000,  0.00000,  1
1009,  1033,  '99',  0.07914,  0.70850,  0.00000,  0.00,  0.00,  0.00,  0.00000,  0.000,  0.00000,  0.00000,  0.00000,  0.00000,  1
1009,  1039,  '99',  1.38671,  4.73594,  0.00000,  0.00,  0.00,  0.00,  0.00000,  0.000,  0.00000,  0.00000,  0.00000,  0.00000,  1
1009,  1070,  '99',  -0.00823,  0.40195,  0.00000,  0.00,  0.00,  0.00,  0.00000,  0.000,  0.00000,  0.00000,  0.00000,  0.00000,  1
1009,  1082,  '99',  0.09843,  0.46290,  0.00000,  0.00,  0.00,  0.00,  0.00000,  0.000,  0.00000,  0.00000,  0.00000,  0.00000,  1
1009,  1088,  '99',  0.64355,  2.66958,  0.00000,  0.00,  0.00,  0.00,  0.00000,  0.000,  0.00000,  0.00000,  0.00000,  0.00000,  1
1021,  1026,  '99',  0.01387,  0.81994,  0.00000,  0.00,  0.00,  0.00,  0.00000,  0.000,  0.00000,  0.00000,  0.00000,  0.00000,  1
1021,  1035,  '99',  0.64241,  4.15552,  0.00000,  0.00,  0.00,  0.00,  0.00000,  0.000,  0.00000,  0.00000,  0.00000,  0.00000,  1
1021,  1042,  '99',  0.55335,  4.20665,  0.00000,  0.00,  0.00,  0.00,  0.00000,  0.000,  0.00000,  0.00000,  0.00000,  0.00000,  1
1021,  1084,  '99',  0.01197,  0.19520,  0.00000,  0.00,  0.00,  0.00,  0.00000,  0.000,  0.00000,  0.00000,  0.00000,  0.00000,  1
1021,  3048,  '99',  0.55069,  4.60515,  0.00000,  0.00,  0.00,  0.00,  0.00000,  0.000,  0.00000,  0.00000,  0.00000,  0.00000,  1
1021,  3112,  '99',  0.45070,  2.35447,  0.00000,  0.00,  0.00,  0.00,  0.00000,  0.000,  0.00000,  0.00000,  0.00000,  0.00000,  1
1021,  3113,  '99',  0.45070,  2.35447,  0.00000,  0.00,  0.00,  0.00,  0.00000,  0.000,  0.00000,  0.00000,  0.00000,  0.00000,  1
1023,  2100,  '99',  0.09539,  4.32094,  0.00000,  0.00,  0.00,  0.00,  0.00000,  0.000,  0.00000,  0.00000,  0.00000,  0.00000,  1
1023,  3098,  '99',  0.01766,  3.10251,  0.00000,  0.00,  0.00,  0.00,  0.00000,  0.000,  0.00000,  0.00000,  0.00000,  0.00000,  1
1023,  3110,  '99',  0.08555,  0.92642,  0.00000,  0.00,  0.00,  0.00,  0.00000,  0.000,  0.00000,  0.00000,  0.00000,  0.00000,  1
1026,  1035,  '99',  0.42321,  2.87897,  0.00000,  0.00,  0.00,  0.00,  0.00000,  0.000,  0.00000,  0.00000,  0.00000,  0.00000,  1
1026,  1042,  '99',  0.36158,  2.91788,  0.00000,  0.00,  0.00,  0.00,  0.00000,  0.000,  0.00000,  0.00000,  0.00000,  0.00000,  1
1026,  1066,  '99',  0.53008,  3.90227,  0.00000,  0.00,  0.00,  0.00,  0.00000,  0.000,  0.00000,  0.00000,  0.00000,  0.00000,  1
1026,  1084,  '99',  0.07245,  0.48748,  0.00000,  0.00,  0.00,  0.00,  0.00000,  0.000,  0.00000,  0.00000,  0.00000,  0.00000,  1
1033,  1039,  '99',  0.07387,  0.91279,  0.00000,  0.00,  0.00,  0.00,  0.00000,  0.000,  0.00000,  0.00000,  0.00000,  0.00000,  1
1033,  1070,  '99',  0.11893,  0.88289,  0.00000,  0.00,  0.00,  0.00,  0.00000,  0.000,  0.00000,  0.00000,  0.00000,  0.00000,  1
1033,  1081,  '99',  0.00300,  0.03093,  0.00000,  0.00,  0.00,  0.00,  0.00000,  0.000,  0.00000,  0.00000,  0.00000,  0.00000,  1
1033,  1082,  '99',  0.10743,  0.36199,  0.00000,  0.00,  0.00,  0.00,  0.00000,  0.000,  0.00000,  0.00000,  0.00000,  0.00000,  1
1033,  1088,  '99',  0.01658,  0.50929,  0.00000,  0.00,  0.00,  0.00,  0.00000,  0.000,  0.00000,  0.00000,  0.00000,  0.00000,  1
1033,  3020,  '99',  0.03644,  0.84840,  0.00000,  0.00,  0.00,  0.00,  0.00000,  0.000,  0.00000,  0.00000,  0.00000,  0.00000,  1
1033,  4115,  '99',  0.15954,  3.79148,  0.00000,  0.00,  0.00,  0.00,  0.00000,  0.000,  0.00000,  0.00000,  0.00000,  0.00000,  1
1033,  4116,  '99',  0.20695,  3.98769,  0.00000,  0.00,  0.00,  0.00,  0.00000,  0.000,  0.00000,  0.00000,  0.00000,  0.00000,  1
1033,  4195,  '99',  0.30399,  2.72139,  0.00000,  0.00,  0.00,  0.00,  0.00000,  0.000,  0.00000,  0.00000,  0.00000,  0.00000,  1
1035,  1042,  '99',  0.00807,  0.65460,  0.00000,  0.00,  0.00,  0.00,  0.00000,  0.000,  0.00000,  0.00000,  0.00000,  0.00000,  1
1035,  1057,  '99',  0.09766,  2.22763,  0.00000,  0.00,  0.00,  0.00,  0.00000,  0.000,  0.00000,  0.00000,  0.00000,  0.00000,  1
1035,  1066,  '99',  0.03336,  0.92355,  0.00000,  0.00,  0.00,  0.00,  0.00000,  0.000,  0.00000,  0.00000,  0.00000,  0.00000,  1
1035,  1084,  '99',  0.67555,  2.27529,  0.00000,  0.00,  0.00,  0.00,  0.00000,  0.000,  0.00000,  0.00000,  0.00000,  0.00000,  1
1035,  1088,  '99',  0.06034,  0.92743,  0.00000,  0.00,  0.00,  0.00,  0.00000,  0.000,  0.00000,  0.00000,  0.00000,  0.00000,  1
1039,  1048,  '99',  0.05808,  3.39669,  0.00000,  0.00,  0.00,  0.00,  0.00000,  0.000,  0.00000,  0.00000,  0.00000,  0.00000,  1
1039,  1053,  '99',  -0.03498,  4.54577,  0.00000,  0.00,  0.00,  0.00,  0.00000,  0.000,  0.00000,  0.00000,  0.00000,  0.00000,  1
1039,  1082,  '99',  0.01242,  0.17234,  0.00000,  0.00,  0.00,  0.00,  0.00000,  0.000,  0.00000,  0.00000,  0.00000,  0.00000,  1
1039,  1088,  '99',  0.64973,  3.18762,  0.00000,  0.00,  0.00,  0.00,  0.00000,  0.000,  0.00000,  0.00000,  0.00000,  0.00000,  1
1042,  1057,  '99',  -0.01247,  1.64678,  0.00000,  0.00,  0.00,  0.00,  0.00000,  0.000,  0.00000,  0.00000,  0.00000,  0.00000,  1
1042,  1066,  '99',  -0.01438,  0.56290,  0.00000,  0.00,  0.00,  0.00,  0.00000,  0.000,  0.00000,  0.00000,  0.00000,  0.00000,  1
1042,  1084,  '99',  0.61328,  2.25611,  0.00000,  0.00,  0.00,  0.00,  0.00000,  0.000,  0.00000,  0.00000,  0.00000,  0.00000,  1
1042,  1088,  '99',  0.28524,  3.37756,  0.00000,  0.00,  0.00,  0.00,  0.00000,  0.000,  0.00000,  0.00000,  0.00000,  0.00000,  1
1048,  1049,  '99',  -0.00083,  0.36798,  0.00000,  0.00,  0.00,  0.00,  0.00000,  0.000,  0.00000,  0.00000,  0.00000,  0.00000,  1
1048,  1053,  '99',  0.00012,  0.27509,  0.00000,  0.00,  0.00,  0.00,  0.00000,  0.000,  0.00000,  0.00000,  0.00000,  0.00000,  1
1048,  1082,  '99',  0.43597,  1.93368,  0.00000,  0.00,  0.00,  0.00,  0.00000,  0.000,  0.00000,  0.00000,  0.00000,  0.00000,  1
1048,  1090,  '99',  0.07413,  0.48538,  0.00000,  0.00,  0.00,  0.00,  0.00000,  0.000,  0.00000,  0.00000,  0.00000,  0.00000,  1
1049,  1053,  '99',  -0.01332,  0.49223,  0.00000,  0.00,  0.00,  0.00,  0.00000,  0.000,  0.00000,  0.00000,  0.00000,  0.00000,  1
1049,  1082,  '99',  0.68499,  3.48141,  0.00000,  0.00,  0.00,  0.00,  0.00000,  0.000,  0.00000,  0.00000,  0.00000,  0.00000,  1
1049,  1090,  '99',  0.10878,  0.87214,  0.00000,  0.00,  0.00,  0.00,  0.00000,  0.000,  0.00000,  0.00000,  0.00000,  0.00000,  1
1053,  1081,  '99',  0.00299,  0.02991,  0.00000,  0.00,  0.00,  0.00,  0.00000,  0.000,  0.00000,  0.00000,  0.00000,  0.00000,  1
1053,  1082,  '99',  0.51907,  2.60120,  0.00000,  0.00,  0.00,  0.00,  0.00000,  0.000,  0.00000,  0.00000,  0.00000,  0.00000,  1
1053,  1090,  '99',  0.08307,  0.65176,  0.00000,  0.00,  0.00,  0.00,  0.00000,  0.000,  0.00000,  0.00000,  0.00000,  0.00000,  1
1057,  1066,  '99',  -0.02774,  1.43743,  0.00000,  0.00,  0.00,  0.00,  0.00000,  0.000,  0.00000,  0.00000,  0.00000,  0.00000,  1
1057,  1076,  '99',  0.19991,  3.40263,  0.00000,  0.00,  0.00,  0.00,  0.00000,  0.000,  0.00000,  0.00000,  0.00000,  0.00000,  1
1057,  1081,  '99',  0.25537,  4.37767,  0.00000,  0.00,  0.00,  0.00,  0.00000,  0.000,  0.00000,  0.00000,  0.00000,  0.00000,  1
1057,  1084,  '99',  0.49738,  2.68269,  0.00000,  0.00,  0.00,  0.00,  0.00000,  0.000,  0.00000,  0.00000,  0.00000,  0.00000,  1
1057,  1090,  '99',  0.46256,  3.18607,  0.00000,  0.00,  0.00,  0.00,  0.00000,  0.000,  0.00000,  0.00000,  0.00000,  0.00000,  1
1057,  3048,  '99',  0.15713,  2.96121,  0.00000,  0.00,  0.00,  0.00,  0.00000,  0.000,  0.00000,  0.00000,  0.00000,  0.00000,  1
1066,  1084,  '99',  0.81484,  2.86980,  0.00000,  0.00,  0.00,  0.00,  0.00000,  0.000,  0.00000,  0.00000,  0.00000,  0.00000,  1
...